
     RDKit          3D

 10  9  0  0  0  0  0  0  0  0999 V2000
    0.2866    1.9779   -0.6973 O   0  0  0  0  0  0  0  0  0  0  0  0
    0.0703    0.4987   -0.7307 S   0  0  0  0  0  4  0  0  0  0  0  0
    1.4229   -0.4130    0.0628 C   0  0  0  0  0  0  0  0  0  0  0  0
   -1.4564   -0.0024    0.0871 C   0  0  0  0  0  0  0  0  0  0  0  0
    1.0523   -1.4559    0.1804 H   0  0  0  0  0  0  0  0  0  0  0  0
    2.2894   -0.3300   -0.6116 H   0  0  0  0  0  0  0  0  0  0  0  0
    1.6169    0.0805    1.0281 H   0  0  0  0  0  0  0  0  0  0  0  0
   -1.8822    0.8766    0.5753 H   0  0  0  0  0  0  0  0  0  0  0  0
   -2.1116   -0.4236   -0.7225 H   0  0  0  0  0  0  0  0  0  0  0  0
   -1.2881   -0.8089    0.8284 H   0  0  0  0  0  0  0  0  0  0  0  0
  1  2  2  0
  2  3  1  0
  2  4  1  0
  3  5  1  0
  3  6  1  0
  3  7  1  0
  4  8  1  0
  4  9  1  0
  4 10  1  0
M  END
