
     RDKit          3D

  6  5  0  0  0  0  0  0  0  0999 V2000
   -0.4942    0.0244   -0.0265 C   0  0  0  0  0  0  0  0  0  0  0  0
    0.9626   -0.0132    0.0194 C   0  0  0  0  0  0  0  0  0  0  0  0
    2.1608   -0.0420    0.0394 C   0  0  0  0  0  3  0  0  0  0  0  0
   -0.9042   -0.0082    1.0068 H   0  0  0  0  0  0  0  0  0  0  0  0
   -0.8567    0.9445   -0.5170 H   0  0  0  0  0  0  0  0  0  0  0  0
   -0.8683   -0.9055   -0.5221 H   0  0  0  0  0  0  0  0  0  0  0  0
  1  2  1  0
  2  3  3  0
  1  4  1  0
  1  5  1  0
  1  6  1  0
M  END
