
     RDKit          3D

  7  6  0  0  0  0  0  0  0  0999 V2000
    1.4472   -1.1105   -0.0946 O   0  0  0  0  0  0  0  0  0  0  0  0
    0.7839   -0.0803   -0.0649 N   0  0  0  0  0  4  0  0  0  0  0  0
   -0.6616   -0.0203    0.0443 C   0  0  0  0  0  0  0  0  0  0  0  0
    1.4357    1.1273   -0.1393 O   0  0  0  0  0  1  0  0  0  0  0  0
   -1.1321   -1.0057   -0.1374 H   0  0  0  0  0  0  0  0  0  0  0  0
   -0.9987    0.7548   -0.6870 H   0  0  0  0  0  0  0  0  0  0  0  0
   -0.8746    0.3346    1.0787 H   0  0  0  0  0  0  0  0  0  0  0  0
  1  2  2  0
  2  3  1  0
  2  4  1  0
  3  5  1  0
  3  6  1  0
  3  7  1  0
M  END
