
     RDKit          3D

  6  5  0  0  0  0  0  0  0  0999 V2000
   -0.3858    0.0121   -0.0046 C   0  0  0  0  0  0  0  0  0  0  0  0
    0.9338    0.3744   -0.2961 O   0  0  0  0  0  0  0  0  0  0  0  0
   -0.4710   -0.6137    0.8940 H   0  0  0  0  0  0  0  0  0  0  0  0
   -0.7417   -0.5863   -0.8591 H   0  0  0  0  0  0  0  0  0  0  0  0
   -0.9359    0.9788    0.1119 H   0  0  0  0  0  0  0  0  0  0  0  0
    1.6006   -0.1653    0.1539 H   0  0  0  0  0  0  0  0  0  0  0  0
  1  2  1  0
  1  3  1  0
  1  4  1  0
  1  5  1  0
  2  6  1  0
M  END
