
     RDKit          3D

  9  8  0  0  0  0  0  0  0  0999 V2000
   -2.2229    0.2615   -1.3314 O   0  0  0  0  0  0  0  0  0  0  0  0
   -1.2337    0.0923   -0.1748 P   0  0  0  0  0  5  0  0  0  0  0  0
    0.2863   -0.0815   -0.8472 O   0  0  0  0  0  0  0  0  0  0  0  0
    1.3111   -0.1138    0.0645 C   0  0  0  0  0  0  0  0  0  0  0  0
   -1.3507    1.4785    0.8042 O   0  0  0  0  0  1  0  0  0  0  0  0
   -1.7333   -1.2840    0.6728 O   0  0  0  0  0  1  0  0  0  0  0  0
    2.1323    0.5613   -0.3070 H   0  0  0  0  0  0  0  0  0  0  0  0
    1.7653   -1.1367    0.0446 H   0  0  0  0  0  0  0  0  0  0  0  0
    1.0456    0.2224    1.0743 H   0  0  0  0  0  0  0  0  0  0  0  0
  1  2  2  0
  2  3  1  0
  3  4  1  0
  2  5  1  0
  2  6  1  0
  4  7  1  0
  4  8  1  0
  4  9  1  0
M  END
