
     RDKit          3D

  8  7  0  0  0  0  0  0  0  0999 V2000
    1.4321    1.3255   -0.4098 O   0  0  0  0  0  0  0  0  0  0  0  0
    0.8261    0.0077   -0.0287 S   0  0  0  0  0  6  0  0  0  0  0  0
    1.3088   -0.4204    1.5374 O   0  0  0  0  0  1  0  0  0  0  0  0
   -0.9333    0.0335   -0.0477 C   0  0  0  0  0  0  0  0  0  0  0  0
    1.3553   -1.0234   -0.9669 O   0  0  0  0  0  0  0  0  0  0  0  0
   -1.3825   -0.3011    0.9278 H   0  0  0  0  0  0  0  0  0  0  0  0
   -1.3108    1.0652   -0.2123 H   0  0  0  0  0  0  0  0  0  0  0  0
   -1.2956   -0.6870   -0.7997 H   0  0  0  0  0  0  0  0  0  0  0  0
  1  2  2  0
  2  3  1  0
  2  4  1  0
  2  5  2  0
  4  6  1  0
  4  7  1  0
  4  8  1  0
M  END
