
     RDKit          3D

 10  9  0  0  0  0  0  0  0  0999 V2000
   -0.8847   -0.5545   -0.2953 N   0  0  0  0  0  4  0  0  0  0  0  0
   -0.1362    0.5745    0.1710 C   0  0  0  0  0  0  0  0  0  0  0  0
    1.2865    0.2167    0.2432 C   0  0  0  0  0  0  0  0  0  0  0  0
    1.6871   -1.0450   -0.1141 O   0  0  0  0  0  1  0  0  0  0  0  0
    2.1175    1.0591    0.6274 O   0  0  0  0  0  0  0  0  0  0  0  0
   -1.1118   -0.5249   -1.3170 H   0  0  0  0  0  0  0  0  0  0  0  0
   -1.7699   -0.6403    0.2808 H   0  0  0  0  0  0  0  0  0  0  0  0
   -0.3737   -1.4584   -0.1502 H   0  0  0  0  0  0  0  0  0  0  0  0
   -0.3181    1.3969   -0.5839 H   0  0  0  0  0  0  0  0  0  0  0  0
   -0.4968    0.9759    1.1382 H   0  0  0  0  0  0  0  0  0  0  0  0
  1  2  1  0
  2  3  1  0
  3  4  1  0
  3  5  2  0
  1  6  1  0
  1  7  1  0
  1  8  1  0
  2  9  1  0
  2 10  1  0
M  END
