
     RDKit          3D

 13 12  0  0  0  0  0  0  0  0999 V2000
   -1.1322   -0.7171   -0.0206 C   0  0  0  0  0  0  0  0  0  0  0  0
   -0.0146    0.0405   -0.1046 O   0  0  0  0  0  3  0  0  0  0  0  0
    1.1620   -0.5595   -0.3257 C   0  0  0  0  0  0  0  0  0  0  0  0
   -0.0457    1.3058    0.3346 C   0  0  0  0  0  0  0  0  0  0  0  0
   -2.0394   -0.1094    0.1638 H   0  0  0  0  0  0  0  0  0  0  0  0
   -1.0528   -1.4883    0.7665 H   0  0  0  0  0  0  0  0  0  0  0  0
   -1.2721   -1.2379   -1.0137 H   0  0  0  0  0  0  0  0  0  0  0  0
    1.9683    0.2012   -0.3660 H   0  0  0  0  0  0  0  0  0  0  0  0
    1.2311   -1.1384   -1.2773 H   0  0  0  0  0  0  0  0  0  0  0  0
    1.3892   -1.2845    0.5047 H   0  0  0  0  0  0  0  0  0  0  0  0
   -0.8189    1.8780   -0.2449 H   0  0  0  0  0  0  0  0  0  0  0  0
   -0.2936    1.3099    1.4347 H   0  0  0  0  0  0  0  0  0  0  0  0
    0.9185    1.7997    0.1483 H   0  0  0  0  0  0  0  0  0  0  0  0
  1  2  1  0
  2  3  1  0
  2  4  1  0
  1  5  1  0
  1  6  1  0
  1  7  1  0
  3  8  1  0
  3  9  1  0
  3 10  1  0
  4 11  1  0
  4 12  1  0
  4 13  1  0
M  END
